<configuration>
  <input>
    <net-file value="grid.net.xml"/>
    <route-files value="routes.rou.xml"/>
  </input>
  <time>
    <begin value="0"/>
    <end value="1000"/>  <!-- 17 minutes -->
  </time>
  <gui_only>
    <start value="true"/>  <!-- Auto-start GUI -->
  </gui_only>
</configuration>
